tests/data/power_flow/pv-node/pv-node-pp-example-simple/input.json
{
  "version": "1.0",
  "type": "input",
  "is_batch": false,
  "attributes": {},
  "data": {
    "node": [
      {"id": 0, "u_rated": 110000},
      {"id": 1, "u_rated": 110000},
      {"id": 2, "u_rated": 20000},
      {"id": 3, "u_rated": 20000},
      {"id": 4, "u_rated": 20000}
    ],
    "line": [
      {"id": 5, "from_node": 0, "to_node": 1, "from_status": 1, "to_status": 1, "r1": 0.59999999999999998, "x1": 1.4399999999999999, "c1": 1.44e-06, "tan1": 0, "i_n": 588},
      {"id": 6, "from_node": 2, "to_node": 3, "from_status": 1, "to_status": 1, "r1": 0.24399999999999999, "x1": 0.224, "c1": 6.0800000000000004e-07, "tan1": 0, "i_n": 421},
      {"id": 7, "from_node": 3, "to_node": 4, "from_status": 1, "to_status": 1, "r1": 2.0786500000000001, "x1": 1.302, "c1": 3.3250000000000003e-08, "tan1": 0, "i_n": 210}
    ],
    "source": [
      {"id": 8, "node": 0, "status": 1, "u_ref": 1.02, "u_ref_angle": 0.87266463000000005, "sk": 1e+40, "rx_ratio": 0.10000000000000001}
    ],
    "sym_load": [
      {"id": 9, "node": 4, "status": 1, "type": 0, "p_specified": 1200000, "q_specified": 2400000}
    ],
    "shunt": [
      {"id": 10, "node": 1, "status": 1, "g1": 0, "b1": 7.9338842999999998e-05, "g0": 0, "b0": 7.9338842999999998e-05}
    ],
    "transformer": [
      {"id": 11, "from_node": 1, "to_node": 2, "from_status": 1, "to_status": 1, "u1": 110000, "u2": 20000, "sn": 25000000, "uk": 0.12, "pk": 102500, "i0": 0.00069999999999999999, "p0": 14000, "winding_from": 1, "winding_to": 2, "clock": 5, "tap_side": 0, "tap_pos": 0, "tap_min": -9, "tap_max": 9, "tap_nom": 0, "tap_size": 1650}
    ],
    "sym_gen": [
      {"id": 12, "node": 4, "status": 1, "type": 0, "p_specified": 2000000, "q_specified": -500000},
      {"id": 13, "node": 3, "status": 1, "type": 0, "p_specified": 6000000, "q_specified": 0}
    ],
    "voltage_regulator": [
      {"id": 14, "regulated_object": 13, "status": 1, "u_ref": 1.03}
    ]
  }
}