tests/data/power_flow/pv-node/pv-node-pp-example-simple/sym_output.json
{
  "version": "1.0",
  "type": "sym_output",
  "is_batch": false,
  "attributes": {},
  "data": {
    "node": [
      {"id": 0, "energized": 1, "u_pu": 1.02, "u": 112200, "u_angle": 0.87266463000000005, "p": -6703677.1669815257, "q": -7351739.6181143681},
      {"id": 1, "energized": 1, "u_pu": 1.0208515789633952, "u": 112293.67368597347, "u_angle": 0.87321630677002138, "p": 2.4062450236632546e-07, "q": 1.0097748411470506e-06},
      {"id": 2, "energized": 1, "u_pu": 1.0255345523803268, "u": 20510.691047606535, "u_angle": -1.7141115360922916, "p": 3.8394265613451501e-07, "q": 4.1578512052338931e-07},
      {"id": 3, "energized": 1, "u_pu": 1.0300000000000002, "u": 20600.000000000004, "u_angle": -1.711029025450771, "p": 6000000.0000001136, "q": 3746848.4419547259},
      {"id": 4, "energized": 1, "u_pu": 1.0247078943290917, "u": 20494.157886581834, "u_angle": -1.6942933658894943, "p": 800000.00000000303, "q": -2900000.0000000042}
    ],
    "line": [
      {"id": 5, "energized": 1, "loading": 0.087068099928739776, "p_from": -6703677.1669815257, "q_from": -7351739.6181143681, "i_from": 51.19604275809899, "s_from": 9949239.316232264, "p_to": 6706785.9778881101, "q_to": 1659387.0370307863, "i_to": 35.522250242976433, "s_to": 6909018.9963454567},
      {"id": 6, "energized": 1, "loading": 0.45371226951008337, "p_from": -6728606.4692471493, "q_from": -879467.72463671456, "i_from": 191.0128654637451, "s_from": 6785838.8204165502, "p_to": 6755274.1065132702, "q_to": 823243.63098390447, "i_to": 190.72884585180893, "s_to": 6805252.2605766952},
      {"id": 7, "energized": 1, "loading": 0.40356573940709556, "p_from": -755274.10651312408, "q_from": 2923604.8109708466, "i_from": 84.629088149142774, "s_from": 3019586.7377343341, "p_to": 800000.00000000303, "q_to": -2900000.0000000042, "i_to": 84.748805275490071, "s_to": 3008321.7912982698}
    ],
    "source": [
      {"id": 8, "energized": 1, "p": -6703677.1669815257, "q": -7351739.6181143681, "i": 51.19604275809899, "s": 9949239.316232264, "pf": -0.67378791020178019}
    ],
    "sym_load": [
      {"id": 9, "energized": 1, "p": 1200000, "q": 2400000, "i": 75.591949035255141, "s": 2683281.5729997475, "pf": 0.44721359549995798}
    ],
    "shunt": [
      {"id": 10, "energized": 1, "p": 5.5511151231257827e-11, "q": -1000452.4287338164, "i": 5.1437579703390961, "s": 1000452.4287338164, "pf": 5.5486047748930303e-17}
    ],
    "transformer": [
      {"id": 11, "energized": 1, "loading": 0.2714335528166732, "p_from": -6706785.9778875615, "q_from": -658934.60829488456, "i_from": 34.648510453461803, "s_from": 6739078.0505346535, "p_to": 6728606.4692474026, "q_to": 879467.72463694273, "i_to": 191.012865463753, "s_to": 6785838.8204168305}
    ],
    "sym_gen": [
      {"id": 12, "energized": 1, "p": 2000000, "q": -500000, "i": 58.0769445619961, "s": 2061552.8128088303, "pf": 0.97014250014533188},
      {"id": 13, "energized": 1, "p": 6000000, "q": 3746848.4419547259, "i": 198.25580533800357, "s": 7073816.0314626899, "pf": 0.84819847919615021}
    ],
    "voltage_regulator": [
      {"id": 14, "energized": 1, "limit_violated": 0}
    ]
  }
}